GridLAB-D/Modified 6-Node Base Case/GLD Results/test_assets_volt.csv
# test_assets_volt.csv run at 2000-01-01 00:00:00 EST on 21 powerflow objects (not all are nodes),,,,,,,,,,,,
node_name,voltA_mag,voltA_angle,voltB_mag,voltB_angle,voltC_mag,voltC_angle,,,,,,
node_1,7199.557857,0,7199.557857,4.18879,7199.557857,2.094395,,0.00,,-120.00,,120.00
node_2,7097.354958,-0.005373,7122.653608,4.182067,7106.796082,2.086224,,-0.31,,-120.39,,119.53
node_3,2219.572864,-0.598014,2240.841864,3.598333,2234.010482,1.498525,,-34.26,,-153.83,,85.86
node_4,1828.944139,-0.710817,2008.542398,3.49988,1914.660063,1.388379,,-40.73,,-159.47,,79.55
load_4,1828.944139,-0.710817,2008.542398,3.49988,1914.660063,1.388379,,-40.73,,-159.47,,79.55
node_5,1813.552531,-0.716364,1999.646641,3.49547,1902.185006,1.383245,,-41.04,,-159.72,,79.25
node_6,1798.217688,-0.722006,1990.790112,3.491021,1889.760763,1.378042,,-41.37,,-159.98,,78.96
load_6,1798.217688,-0.722006,1990.790112,3.491021,1889.760763,1.378042,,-41.37,,-159.98,,78.96
